data_image0
_chemical_formula_structural       O2Cu8O14Ba8Cu8O16CaY7O16Cu8Ba8O10Cu8O14Ba8Cu8O16CaY7O16Cu8Ba8O10Cu8O6
_chemical_formula_sum              "O120 Cu56 Ba32 Ca2 Y14"
_cell_length_a       10.8864
_cell_length_b       10.8864
_cell_length_c       23.4969
_cell_angle_alpha    90
_cell_angle_beta     90
_cell_angle_gamma    88.3616

_space_group_name_H-M_alt    "P 1"
_space_group_IT_number       1

loop_
  _space_group_symop_operation_xyz
  'x, y, z'

loop_
  _atom_site_type_symbol
  _atom_site_label
  _atom_site_symmetry_multiplicity
  _atom_site_fract_x
  _atom_site_fract_y
  _atom_site_fract_z
  _atom_site_occupancy
  O   O1        1.0  0.37566  0.87434  -0.00001  1.0000
  O   O2        1.0  0.62434  0.62566  -0.00001  1.0000
  Cu  Cu1       1.0  0.00006  0.00011  -0.00001  1.0000
  Cu  Cu2       1.0  0.24989  0.24994  -0.00001  1.0000
  Cu  Cu3       1.0  -0.00006  0.49989  -0.00001  1.0000
  Cu  Cu4       1.0  0.75011  0.25006  -0.00001  1.0000
  Cu  Cu5       1.0  0.25002  0.74999  -0.00001  1.0000
  Cu  Cu6       1.0  0.74998  0.75001  -0.00001  1.0000
  Cu  Cu7       1.0  0.50001  -0.00002  -0.00001  1.0000
  Cu  Cu8       1.0  0.49999  0.50002  -0.00001  1.0000
  O   O3        1.0  0.37522  0.37472  -0.00001  1.0000
  O   O4        1.0  0.12472  0.62522  -0.00001  1.0000
  O   O5        1.0  0.87528  0.87478  -0.00001  1.0000
  O   O6        1.0  0.62478  0.12528  -0.00001  1.0000
  O   O7        1.0  0.87466  0.37534  -0.00000  1.0000
  O   O8        1.0  0.12534  0.12466  -0.00000  1.0000
  O   O9        1.0  -0.00006  0.50037  0.07989  1.0000
  O   O10       1.0  0.25037  0.24994  0.07989  1.0000
  O   O11       1.0  0.00006  -0.00037  0.07989  1.0000
  O   O12       1.0  0.74963  0.25006  0.07989  1.0000
  O   O13       1.0  0.24994  0.74996  0.08010  1.0000
  O   O14       1.0  0.50004  0.00006  0.08010  1.0000
  O   O15       1.0  0.49996  0.49994  0.08010  1.0000
  O   O16       1.0  0.75006  0.75004  0.08010  1.0000
  Ba  Ba1       1.0  0.50000  0.75000  0.08922  1.0000
  Ba  Ba2       1.0  0.00000  0.75000  0.08938  1.0000
  Ba  Ba3       1.0  0.50000  0.25000  0.08938  1.0000
  Ba  Ba4       1.0  0.75060  0.49940  0.08953  1.0000
  Ba  Ba5       1.0  0.24940  0.00060  0.08953  1.0000
  Ba  Ba6       1.0  0.24949  0.49949  0.08966  1.0000
  Ba  Ba7       1.0  0.75051  0.00051  0.08966  1.0000
  Ba  Ba8       1.0  0.00000  0.25000  0.09091  1.0000
  Cu  Cu9       1.0  0.49994  0.00004  0.17439  1.0000
  Cu  Cu10      1.0  0.24996  0.75006  0.17439  1.0000
  Cu  Cu11      1.0  0.50006  0.49996  0.17439  1.0000
  Cu  Cu12      1.0  0.75004  0.74994  0.17439  1.0000
  Cu  Cu13      1.0  0.75058  0.25013  0.17453  1.0000
  Cu  Cu14      1.0  -0.00013  0.49942  0.17453  1.0000
  Cu  Cu15      1.0  0.00013  0.00058  0.17453  1.0000
  Cu  Cu16      1.0  0.24942  0.24987  0.17453  1.0000
  O   O17       1.0  0.12861  0.12139  0.18509  1.0000
  O   O18       1.0  0.87139  0.37861  0.18509  1.0000
  O   O19       1.0  0.87129  0.12129  0.18641  1.0000
  O   O20       1.0  0.12871  0.37871  0.18641  1.0000
  O   O21       1.0  0.37501  0.87499  0.18744  1.0000
  O   O22       1.0  0.62499  0.62501  0.18744  1.0000
  O   O23       1.0  0.37552  0.37447  0.18747  1.0000
  O   O24       1.0  0.12447  0.62552  0.18747  1.0000
  O   O25       1.0  0.62448  0.12553  0.18747  1.0000
  O   O26       1.0  0.87553  0.87448  0.18747  1.0000
  O   O27       1.0  0.62501  0.87501  0.18877  1.0000
  O   O28       1.0  0.37499  0.62499  0.18877  1.0000
  O   O29       1.0  0.62463  0.37450  0.18887  1.0000
  O   O30       1.0  0.37537  0.12550  0.18887  1.0000
  O   O31       1.0  0.87550  0.62537  0.18887  1.0000
  O   O32       1.0  0.12450  0.87463  0.18887  1.0000
  Ca  Ca1       1.0  0.00000  0.25000  0.24893  1.0000
  Y   Y1        1.0  0.75125  0.49875  0.24893  1.0000
  Y   Y2        1.0  0.24875  0.00125  0.24893  1.0000
  Y   Y3        1.0  0.50000  0.75000  0.24894  1.0000
  Y   Y4        1.0  0.00000  0.75000  0.24894  1.0000
  Y   Y5        1.0  0.50000  0.25000  0.24894  1.0000
  Y   Y6        1.0  0.24876  0.49876  0.24894  1.0000
  Y   Y7        1.0  0.75124  0.00124  0.24894  1.0000
  O   O33       1.0  0.37538  0.12551  0.30917  1.0000
  O   O34       1.0  0.12449  0.87462  0.30917  1.0000
  O   O35       1.0  0.87551  0.62538  0.30917  1.0000
  O   O36       1.0  0.62462  0.37449  0.30917  1.0000
  O   O37       1.0  0.37501  0.62501  0.30928  1.0000
  O   O38       1.0  0.62499  0.87499  0.30928  1.0000
  O   O39       1.0  0.87553  0.87449  0.31027  1.0000
  O   O40       1.0  0.37551  0.37447  0.31027  1.0000
  O   O41       1.0  0.12447  0.62551  0.31027  1.0000
  O   O42       1.0  0.62449  0.12553  0.31027  1.0000
  O   O43       1.0  0.37500  0.87500  0.31028  1.0000
  O   O44       1.0  0.62500  0.62500  0.31028  1.0000
  O   O45       1.0  0.12876  0.37876  0.31163  1.0000
  O   O46       1.0  0.87124  0.12124  0.31163  1.0000
  O   O47       1.0  0.12857  0.12143  0.31264  1.0000
  O   O48       1.0  0.87143  0.37857  0.31264  1.0000
  Cu  Cu17      1.0  0.75058  0.25013  0.32336  1.0000
  Cu  Cu18      1.0  -0.00013  0.49942  0.32336  1.0000
  Cu  Cu19      1.0  0.00013  0.00058  0.32336  1.0000
  Cu  Cu20      1.0  0.24942  0.24987  0.32336  1.0000
  Cu  Cu21      1.0  0.75004  0.74994  0.32349  1.0000
  Cu  Cu22      1.0  0.49994  0.00004  0.32349  1.0000
  Cu  Cu23      1.0  0.24996  0.75006  0.32349  1.0000
  Cu  Cu24      1.0  0.50006  0.49996  0.32349  1.0000
  Ba  Ba9       1.0  0.00000  0.25000  0.40695  1.0000
  Ba  Ba10      1.0  0.75051  0.00051  0.40820  1.0000
  Ba  Ba11      1.0  0.24949  0.49949  0.40820  1.0000
  Ba  Ba12      1.0  0.24940  0.00060  0.40831  1.0000
  Ba  Ba13      1.0  0.75060  0.49940  0.40831  1.0000
  Ba  Ba14      1.0  0.50000  0.25000  0.40847  1.0000
  Ba  Ba15      1.0  0.00000  0.75000  0.40847  1.0000
  Ba  Ba16      1.0  0.50000  0.75000  0.40863  1.0000
  O   O49       1.0  0.24993  0.74997  0.41777  1.0000
  O   O50       1.0  0.50003  0.00007  0.41777  1.0000
  O   O51       1.0  0.49997  0.49993  0.41777  1.0000
  O   O52       1.0  0.75007  0.75003  0.41777  1.0000
  O   O53       1.0  -0.00007  0.50037  0.41797  1.0000
  O   O54       1.0  0.25037  0.24993  0.41797  1.0000
  O   O55       1.0  0.00007  -0.00037  0.41797  1.0000
  O   O56       1.0  0.74963  0.25007  0.41797  1.0000
  O   O57       1.0  0.37566  0.87434  0.49786  1.0000
  O   O58       1.0  0.62434  0.62566  0.49786  1.0000
  Cu  Cu25      1.0  0.00006  0.00011  0.49787  1.0000
  Cu  Cu26      1.0  0.24989  0.24994  0.49787  1.0000
  Cu  Cu27      1.0  -0.00006  0.49989  0.49787  1.0000
  Cu  Cu28      1.0  0.75011  0.25006  0.49787  1.0000
  Cu  Cu29      1.0  0.25002  0.74999  0.49787  1.0000
  Cu  Cu30      1.0  0.74998  0.75001  0.49787  1.0000
  Cu  Cu31      1.0  0.50001  -0.00002  0.49787  1.0000
  Cu  Cu32      1.0  0.49999  0.50002  0.49787  1.0000
  O   O59       1.0  0.37522  0.37472  0.49787  1.0000
  O   O60       1.0  0.12472  0.62522  0.49787  1.0000
  O   O61       1.0  0.87528  0.87478  0.49787  1.0000
  O   O62       1.0  0.62478  0.12528  0.49787  1.0000
  O   O63       1.0  0.87466  0.37534  0.49787  1.0000
  O   O64       1.0  0.12534  0.12466  0.49787  1.0000
  O   O65       1.0  -0.00006  0.50037  0.57776  1.0000
  O   O66       1.0  0.25037  0.24994  0.57776  1.0000
  O   O67       1.0  0.00006  -0.00037  0.57776  1.0000
  O   O68       1.0  0.74963  0.25006  0.57776  1.0000
  O   O69       1.0  0.24994  0.74996  0.57797  1.0000
  O   O70       1.0  0.50004  0.00006  0.57797  1.0000
  O   O71       1.0  0.49996  0.49994  0.57797  1.0000
  O   O72       1.0  0.75006  0.75004  0.57797  1.0000
  Ba  Ba17      1.0  0.50000  0.75000  0.58710  1.0000
  Ba  Ba18      1.0  0.00000  0.75000  0.58725  1.0000
  Ba  Ba19      1.0  0.50000  0.25000  0.58725  1.0000
  Ba  Ba20      1.0  0.75060  0.49940  0.58741  1.0000
  Ba  Ba21      1.0  0.24940  0.00060  0.58741  1.0000
  Ba  Ba22      1.0  0.24949  0.49949  0.58753  1.0000
  Ba  Ba23      1.0  0.75051  0.00051  0.58753  1.0000
  Ba  Ba24      1.0  0.00000  0.25000  0.58878  1.0000
  Cu  Cu33      1.0  0.49994  0.00004  0.67227  1.0000
  Cu  Cu34      1.0  0.24996  0.75006  0.67227  1.0000
  Cu  Cu35      1.0  0.50006  0.49996  0.67227  1.0000
  Cu  Cu36      1.0  0.75004  0.74994  0.67227  1.0000
  Cu  Cu37      1.0  0.75058  0.25013  0.67240  1.0000
  Cu  Cu38      1.0  -0.00013  0.49942  0.67240  1.0000
  Cu  Cu39      1.0  0.00013  0.00058  0.67240  1.0000
  Cu  Cu40      1.0  0.24942  0.24987  0.67240  1.0000
  O   O73       1.0  0.12861  0.12139  0.68296  1.0000
  O   O74       1.0  0.87139  0.37861  0.68296  1.0000
  O   O75       1.0  0.87129  0.12129  0.68429  1.0000
  O   O76       1.0  0.12871  0.37871  0.68429  1.0000
  O   O77       1.0  0.37501  0.87499  0.68532  1.0000
  O   O78       1.0  0.62499  0.62501  0.68532  1.0000
  O   O79       1.0  0.37552  0.37447  0.68534  1.0000
  O   O80       1.0  0.12447  0.62552  0.68534  1.0000
  O   O81       1.0  0.62448  0.12553  0.68534  1.0000
  O   O82       1.0  0.87553  0.87448  0.68534  1.0000
  O   O83       1.0  0.62501  0.87501  0.68665  1.0000
  O   O84       1.0  0.37499  0.62499  0.68665  1.0000
  O   O85       1.0  0.62463  0.37450  0.68674  1.0000
  O   O86       1.0  0.37537  0.12550  0.68674  1.0000
  O   O87       1.0  0.87550  0.62537  0.68674  1.0000
  O   O88       1.0  0.12450  0.87463  0.68674  1.0000
  Ca  Ca2       1.0  0.00000  0.25000  0.74680  1.0000
  Y   Y8        1.0  0.75125  0.49875  0.74681  1.0000
  Y   Y9        1.0  0.24875  0.00125  0.74681  1.0000
  Y   Y10       1.0  0.50000  0.75000  0.74681  1.0000
  Y   Y11       1.0  0.00000  0.75000  0.74681  1.0000
  Y   Y12       1.0  0.50000  0.25000  0.74681  1.0000
  Y   Y13       1.0  0.24876  0.49876  0.74681  1.0000
  Y   Y14       1.0  0.75124  0.00124  0.74681  1.0000
  O   O89       1.0  0.37538  0.12551  0.80705  1.0000
  O   O90       1.0  0.12449  0.87462  0.80705  1.0000
  O   O91       1.0  0.87551  0.62538  0.80705  1.0000
  O   O92       1.0  0.62462  0.37449  0.80705  1.0000
  O   O93       1.0  0.37501  0.62501  0.80715  1.0000
  O   O94       1.0  0.62499  0.87499  0.80715  1.0000
  O   O95       1.0  0.87553  0.87449  0.80814  1.0000
  O   O96       1.0  0.37551  0.37447  0.80814  1.0000
  O   O97       1.0  0.12447  0.62551  0.80814  1.0000
  O   O98       1.0  0.62449  0.12553  0.80814  1.0000
  O   O99       1.0  0.37500  0.87500  0.80815  1.0000
  O   O100      1.0  0.62500  0.62500  0.80815  1.0000
  O   O101      1.0  0.12876  0.37876  0.80950  1.0000
  O   O102      1.0  0.87124  0.12124  0.80950  1.0000
  O   O103      1.0  0.12857  0.12143  0.81052  1.0000
  O   O104      1.0  0.87143  0.37857  0.81052  1.0000
  Cu  Cu41      1.0  0.75058  0.25013  0.82123  1.0000
  Cu  Cu42      1.0  -0.00013  0.49942  0.82123  1.0000
  Cu  Cu43      1.0  0.00013  0.00058  0.82123  1.0000
  Cu  Cu44      1.0  0.24942  0.24987  0.82123  1.0000
  Cu  Cu45      1.0  0.75004  0.74994  0.82136  1.0000
  Cu  Cu46      1.0  0.49994  0.00004  0.82136  1.0000
  Cu  Cu47      1.0  0.24996  0.75006  0.82136  1.0000
  Cu  Cu48      1.0  0.50006  0.49996  0.82136  1.0000
  Ba  Ba25      1.0  0.00000  0.25000  0.90482  1.0000
  Ba  Ba26      1.0  0.75051  0.00051  0.90607  1.0000
  Ba  Ba27      1.0  0.24949  0.49949  0.90607  1.0000
  Ba  Ba28      1.0  0.24940  0.00060  0.90619  1.0000
  Ba  Ba29      1.0  0.75060  0.49940  0.90619  1.0000
  Ba  Ba30      1.0  0.50000  0.25000  0.90634  1.0000
  Ba  Ba31      1.0  0.00000  0.75000  0.90634  1.0000
  Ba  Ba32      1.0  0.50000  0.75000  0.90650  1.0000
  O   O105      1.0  0.24993  0.74997  0.91564  1.0000
  O   O106      1.0  0.50003  0.00007  0.91564  1.0000
  O   O107      1.0  0.49997  0.49993  0.91564  1.0000
  O   O108      1.0  0.75007  0.75003  0.91564  1.0000
  O   O109      1.0  -0.00007  0.50037  0.91585  1.0000
  O   O110      1.0  0.25037  0.24993  0.91585  1.0000
  O   O111      1.0  0.00007  -0.00037  0.91585  1.0000
  O   O112      1.0  0.74963  0.25007  0.91585  1.0000
  O   O113      1.0  0.37566  0.87434  0.99574  1.0000
  O   O114      1.0  0.62434  0.62566  0.99574  1.0000
  Cu  Cu49      1.0  0.00006  0.00011  0.99574  1.0000
  Cu  Cu50      1.0  0.24989  0.24994  0.99574  1.0000
  Cu  Cu51      1.0  -0.00006  0.49989  0.99574  1.0000
  Cu  Cu52      1.0  0.75011  0.25006  0.99574  1.0000
  Cu  Cu53      1.0  0.25002  0.74999  0.99574  1.0000
  Cu  Cu54      1.0  0.74998  0.75001  0.99574  1.0000
  Cu  Cu55      1.0  0.50001  -0.00002  0.99574  1.0000
  Cu  Cu56      1.0  0.49999  0.50002  0.99574  1.0000
  O   O115      1.0  0.37522  0.37472  0.99574  1.0000
  O   O116      1.0  0.12472  0.62522  0.99574  1.0000
  O   O117      1.0  0.87528  0.87478  0.99574  1.0000
  O   O118      1.0  0.62478  0.12528  0.99574  1.0000
  O   O119      1.0  0.87466  0.37534  0.99574  1.0000
  O   O120      1.0  0.12534  0.12466  0.99574  1.0000
