data_image0
_chemical_formula_structural       O2Cu8O14Ba8Cu8O16CaY7O16Cu8Ba8O8
_chemical_formula_sum              "O56 Cu24 Ba16 Ca1 Y7"
_cell_length_a       10.8864
_cell_length_b       10.8864
_cell_length_c       11.6984
_cell_angle_alpha    90
_cell_angle_beta     90
_cell_angle_gamma    88.3616

_space_group_name_H-M_alt    "P 1"
_space_group_IT_number       1

loop_
  _space_group_symop_operation_xyz
  'x, y, z'

loop_
  _atom_site_type_symbol
  _atom_site_label
  _atom_site_symmetry_multiplicity
  _atom_site_fract_x
  _atom_site_fract_y
  _atom_site_fract_z
  _atom_site_occupancy
  O   O1        1.0  0.37566  0.87434  -0.00001  1.0000
  O   O2        1.0  0.62434  0.62566  -0.00001  1.0000
  Cu  Cu1       1.0  0.00006  0.00011  -0.00001  1.0000
  Cu  Cu2       1.0  0.24989  0.24994  -0.00001  1.0000
  Cu  Cu3       1.0  -0.00006  0.49989  -0.00001  1.0000
  Cu  Cu4       1.0  0.75011  0.25006  -0.00001  1.0000
  Cu  Cu5       1.0  0.25002  0.74999  -0.00001  1.0000
  Cu  Cu6       1.0  0.74998  0.75001  -0.00001  1.0000
  Cu  Cu7       1.0  0.50001  -0.00002  -0.00001  1.0000
  Cu  Cu8       1.0  0.49999  0.50002  -0.00001  1.0000
  O   O3        1.0  0.37522  0.37472  -0.00001  1.0000
  O   O4        1.0  0.12472  0.62522  -0.00001  1.0000
  O   O5        1.0  0.87528  0.87478  -0.00001  1.0000
  O   O6        1.0  0.62478  0.12528  -0.00001  1.0000
  O   O7        1.0  0.87466  0.37534  -0.00001  1.0000
  O   O8        1.0  0.12534  0.12466  -0.00001  1.0000
  O   O9        1.0  -0.00006  0.50037  0.16046  1.0000
  O   O10       1.0  0.25037  0.24994  0.16046  1.0000
  O   O11       1.0  0.00006  -0.00037  0.16046  1.0000
  O   O12       1.0  0.74963  0.25006  0.16046  1.0000
  O   O13       1.0  0.24994  0.74996  0.16088  1.0000
  O   O14       1.0  0.50004  0.00006  0.16088  1.0000
  O   O15       1.0  0.49996  0.49994  0.16088  1.0000
  O   O16       1.0  0.75006  0.75004  0.16088  1.0000
  Ba  Ba1       1.0  0.50000  0.75000  0.17921  1.0000
  Ba  Ba2       1.0  0.00000  0.75000  0.17953  1.0000
  Ba  Ba3       1.0  0.50000  0.25000  0.17953  1.0000
  Ba  Ba4       1.0  0.75060  0.49940  0.17983  1.0000
  Ba  Ba5       1.0  0.24940  0.00060  0.17983  1.0000
  Ba  Ba6       1.0  0.24949  0.49949  0.18008  1.0000
  Ba  Ba7       1.0  0.75051  0.00051  0.18008  1.0000
  Ba  Ba8       1.0  0.00000  0.25000  0.18259  1.0000
  Cu  Cu9       1.0  0.49994  0.00004  0.35028  1.0000
  Cu  Cu10      1.0  0.24996  0.75006  0.35028  1.0000
  Cu  Cu11      1.0  0.50006  0.49996  0.35028  1.0000
  Cu  Cu12      1.0  0.75004  0.74994  0.35028  1.0000
  Cu  Cu13      1.0  0.75058  0.25013  0.35055  1.0000
  Cu  Cu14      1.0  -0.00013  0.49942  0.35055  1.0000
  Cu  Cu15      1.0  0.00013  0.00058  0.35055  1.0000
  Cu  Cu16      1.0  0.24942  0.24987  0.35055  1.0000
  O   O17       1.0  0.12861  0.12139  0.37176  1.0000
  O   O18       1.0  0.87139  0.37861  0.37176  1.0000
  O   O19       1.0  0.87129  0.12129  0.37442  1.0000
  O   O20       1.0  0.12871  0.37871  0.37442  1.0000
  O   O21       1.0  0.37501  0.87499  0.37649  1.0000
  O   O22       1.0  0.62499  0.62501  0.37649  1.0000
  O   O23       1.0  0.37552  0.37447  0.37654  1.0000
  O   O24       1.0  0.12447  0.62552  0.37654  1.0000
  O   O25       1.0  0.62448  0.12553  0.37654  1.0000
  O   O26       1.0  0.87553  0.87448  0.37654  1.0000
  O   O27       1.0  0.62501  0.87501  0.37916  1.0000
  O   O28       1.0  0.37499  0.62499  0.37916  1.0000
  O   O29       1.0  0.62463  0.37450  0.37935  1.0000
  O   O30       1.0  0.37537  0.12550  0.37935  1.0000
  O   O31       1.0  0.87550  0.62537  0.37935  1.0000
  O   O32       1.0  0.12450  0.87463  0.37935  1.0000
  Ca  Ca1       1.0  0.00000  0.25000  0.49999  1.0000
  Y   Y1        1.0  0.75125  0.49875  0.49999  1.0000
  Y   Y2        1.0  0.24875  0.00125  0.49999  1.0000
  Y   Y3        1.0  0.50000  0.75000  0.50000  1.0000
  Y   Y4        1.0  0.00000  0.75000  0.50000  1.0000
  Y   Y5        1.0  0.50000  0.25000  0.50000  1.0000
  Y   Y6        1.0  0.24876  0.49876  0.50001  1.0000
  Y   Y7        1.0  0.75124  0.00124  0.50001  1.0000
  O   O33       1.0  0.37538  0.12551  0.62099  1.0000
  O   O34       1.0  0.12449  0.87462  0.62099  1.0000
  O   O35       1.0  0.87551  0.62538  0.62099  1.0000
  O   O36       1.0  0.62462  0.37449  0.62099  1.0000
  O   O37       1.0  0.37501  0.62501  0.62120  1.0000
  O   O38       1.0  0.62499  0.87499  0.62120  1.0000
  O   O39       1.0  0.87553  0.87449  0.62318  1.0000
  O   O40       1.0  0.37551  0.37447  0.62318  1.0000
  O   O41       1.0  0.12447  0.62551  0.62318  1.0000
  O   O42       1.0  0.62449  0.12553  0.62318  1.0000
  O   O43       1.0  0.37500  0.87500  0.62321  1.0000
  O   O44       1.0  0.62500  0.62500  0.62321  1.0000
  O   O45       1.0  0.12876  0.37876  0.62593  1.0000
  O   O46       1.0  0.87124  0.12124  0.62593  1.0000
  O   O47       1.0  0.12857  0.12143  0.62796  1.0000
  O   O48       1.0  0.87143  0.37857  0.62796  1.0000
  Cu  Cu17      1.0  0.75058  0.25013  0.64948  1.0000
  Cu  Cu18      1.0  -0.00013  0.49942  0.64948  1.0000
  Cu  Cu19      1.0  0.00013  0.00058  0.64948  1.0000
  Cu  Cu20      1.0  0.24942  0.24987  0.64948  1.0000
  Cu  Cu21      1.0  0.75004  0.74994  0.64974  1.0000
  Cu  Cu22      1.0  0.49994  0.00004  0.64974  1.0000
  Cu  Cu23      1.0  0.24996  0.75006  0.64974  1.0000
  Cu  Cu24      1.0  0.50006  0.49996  0.64974  1.0000
  Ba  Ba9       1.0  0.00000  0.25000  0.81738  1.0000
  Ba  Ba10      1.0  0.75051  0.00051  0.81989  1.0000
  Ba  Ba11      1.0  0.24949  0.49949  0.81989  1.0000
  Ba  Ba12      1.0  0.24940  0.00060  0.82012  1.0000
  Ba  Ba13      1.0  0.75060  0.49940  0.82012  1.0000
  Ba  Ba14      1.0  0.50000  0.25000  0.82043  1.0000
  Ba  Ba15      1.0  0.00000  0.75000  0.82043  1.0000
  Ba  Ba16      1.0  0.50000  0.75000  0.82075  1.0000
  O   O49       1.0  0.24993  0.74997  0.83911  1.0000
  O   O50       1.0  0.50003  0.00007  0.83911  1.0000
  O   O51       1.0  0.49997  0.49993  0.83911  1.0000
  O   O52       1.0  0.75007  0.75003  0.83911  1.0000
  O   O53       1.0  -0.00007  0.50037  0.83952  1.0000
  O   O54       1.0  0.25037  0.24993  0.83952  1.0000
  O   O55       1.0  0.00007  -0.00037  0.83952  1.0000
  O   O56       1.0  0.74963  0.25007  0.83952  1.0000
