data_image0
_chemical_formula_structural       Y2Ba4Cu6O14Y2Ba4Cu6O14Y2Ba4Cu6O14Y2Ba4Cu6O14
_chemical_formula_sum              "Y8 Ba16 Cu24 O56"
_cell_length_a       5.45202
_cell_length_b       5.45202
_cell_length_c       86.72
_cell_angle_alpha    90
_cell_angle_beta     90
_cell_angle_gamma    90

_space_group_name_H-M_alt    "P 1"
_space_group_IT_number       1

loop_
  _space_group_symop_operation_xyz
  'x, y, z'

loop_
  _atom_site_type_symbol
  _atom_site_label
  _atom_site_symmetry_multiplicity
  _atom_site_fract_x
  _atom_site_fract_y
  _atom_site_fract_z
  _atom_site_occupancy
  Y   Y1        1.0  0.50000  0.00000  0.06734  1.0000
  Y   Y2        1.0  0.00000  0.50000  0.06734  1.0000
  Ba  Ba1       1.0  0.50000  0.00000  0.11036  1.0000
  Ba  Ba2       1.0  0.00000  0.50000  0.11036  1.0000
  Ba  Ba3       1.0  0.50000  0.00000  0.02433  1.0000
  Ba  Ba4       1.0  0.00000  0.50000  0.02433  1.0000
  Cu  Cu1       1.0  0.00000  0.00000  0.00000  1.0000
  Cu  Cu2       1.0  0.50000  0.50000  0.00000  1.0000
  Cu  Cu3       1.0  0.00000  0.00000  0.08710  1.0000
  Cu  Cu4       1.0  0.50000  0.50000  0.08710  1.0000
  Cu  Cu5       1.0  0.00000  0.00000  0.04759  1.0000
  Cu  Cu6       1.0  0.50000  0.50000  0.04759  1.0000
  O   O1        1.0  0.25000  0.25000  0.00000  1.0000
  O   O2        1.0  0.75000  0.75000  0.00000  1.0000
  O   O3        1.0  0.00000  0.00000  0.02144  1.0000
  O   O4        1.0  0.50000  0.50000  0.02144  1.0000
  O   O5        1.0  0.25000  0.25000  0.05096  1.0000
  O   O6        1.0  0.75000  0.75000  0.05096  1.0000
  O   O7        1.0  0.25000  0.75000  0.05109  1.0000
  O   O8        1.0  0.75000  0.25000  0.05109  1.0000
  O   O9        1.0  0.25000  0.25000  0.08359  1.0000
  O   O10       1.0  0.75000  0.75000  0.08359  1.0000
  O   O11       1.0  0.25000  0.75000  0.08373  1.0000
  O   O12       1.0  0.75000  0.25000  0.08373  1.0000
  O   O13       1.0  0.00000  0.00000  0.11325  1.0000
  O   O14       1.0  0.50000  0.50000  0.11325  1.0000
  Y   Y3        1.0  0.50000  0.00000  0.20203  1.0000
  Y   Y4        1.0  0.00000  0.50000  0.20203  1.0000
  Ba  Ba5       1.0  0.50000  0.00000  0.24505  1.0000
  Ba  Ba6       1.0  0.00000  0.50000  0.24505  1.0000
  Ba  Ba7       1.0  0.50000  0.00000  0.15901  1.0000
  Ba  Ba8       1.0  0.00000  0.50000  0.15901  1.0000
  Cu  Cu7       1.0  0.00000  0.00000  0.13469  1.0000
  Cu  Cu8       1.0  0.50000  0.50000  0.13469  1.0000
  Cu  Cu9       1.0  0.00000  0.00000  0.22179  1.0000
  Cu  Cu10      1.0  0.50000  0.50000  0.22179  1.0000
  Cu  Cu11      1.0  0.00000  0.00000  0.18227  1.0000
  Cu  Cu12      1.0  0.50000  0.50000  0.18227  1.0000
  O   O15       1.0  0.25000  0.25000  0.13469  1.0000
  O   O16       1.0  0.75000  0.75000  0.13469  1.0000
  O   O17       1.0  0.00000  0.00000  0.15613  1.0000
  O   O18       1.0  0.50000  0.50000  0.15613  1.0000
  O   O19       1.0  0.25000  0.25000  0.18564  1.0000
  O   O20       1.0  0.75000  0.75000  0.18564  1.0000
  O   O21       1.0  0.25000  0.75000  0.18578  1.0000
  O   O22       1.0  0.75000  0.25000  0.18578  1.0000
  O   O23       1.0  0.25000  0.25000  0.21828  1.0000
  O   O24       1.0  0.75000  0.75000  0.21828  1.0000
  O   O25       1.0  0.25000  0.75000  0.21841  1.0000
  O   O26       1.0  0.75000  0.25000  0.21841  1.0000
  O   O27       1.0  0.00000  0.00000  0.24793  1.0000
  O   O28       1.0  0.50000  0.50000  0.24793  1.0000
  Y   Y5        1.0  0.50000  0.00000  0.33672  1.0000
  Y   Y6        1.0  0.00000  0.50000  0.33672  1.0000
  Ba  Ba9       1.0  0.50000  0.00000  0.37973  1.0000
  Ba  Ba10      1.0  0.00000  0.50000  0.37973  1.0000
  Ba  Ba11      1.0  0.50000  0.00000  0.29370  1.0000
  Ba  Ba12      1.0  0.00000  0.50000  0.29370  1.0000
  Cu  Cu13      1.0  0.00000  0.00000  0.26937  1.0000
  Cu  Cu14      1.0  0.50000  0.50000  0.26937  1.0000
  Cu  Cu15      1.0  0.00000  0.00000  0.35647  1.0000
  Cu  Cu16      1.0  0.50000  0.50000  0.35647  1.0000
  Cu  Cu17      1.0  0.00000  0.00000  0.31696  1.0000
  Cu  Cu18      1.0  0.50000  0.50000  0.31696  1.0000
  O   O29       1.0  0.25000  0.25000  0.26937  1.0000
  O   O30       1.0  0.75000  0.75000  0.26937  1.0000
  O   O31       1.0  0.00000  0.00000  0.29081  1.0000
  O   O32       1.0  0.50000  0.50000  0.29081  1.0000
  O   O33       1.0  0.25000  0.25000  0.32033  1.0000
  O   O34       1.0  0.75000  0.75000  0.32033  1.0000
  O   O35       1.0  0.25000  0.75000  0.32047  1.0000
  O   O36       1.0  0.75000  0.25000  0.32047  1.0000
  O   O37       1.0  0.25000  0.25000  0.35297  1.0000
  O   O38       1.0  0.75000  0.75000  0.35297  1.0000
  O   O39       1.0  0.25000  0.75000  0.35310  1.0000
  O   O40       1.0  0.75000  0.25000  0.35310  1.0000
  O   O41       1.0  0.00000  0.00000  0.38262  1.0000
  O   O42       1.0  0.50000  0.50000  0.38262  1.0000
  Y   Y7        1.0  0.50000  0.00000  0.47140  1.0000
  Y   Y8        1.0  0.00000  0.50000  0.47140  1.0000
  Ba  Ba13      1.0  0.50000  0.00000  0.51442  1.0000
  Ba  Ba14      1.0  0.00000  0.50000  0.51442  1.0000
  Ba  Ba15      1.0  0.50000  0.00000  0.42838  1.0000
  Ba  Ba16      1.0  0.00000  0.50000  0.42838  1.0000
  Cu  Cu19      1.0  0.00000  0.00000  0.40406  1.0000
  Cu  Cu20      1.0  0.50000  0.50000  0.40406  1.0000
  Cu  Cu21      1.0  0.00000  0.00000  0.49116  1.0000
  Cu  Cu22      1.0  0.50000  0.50000  0.49116  1.0000
  Cu  Cu23      1.0  0.00000  0.00000  0.45165  1.0000
  Cu  Cu24      1.0  0.50000  0.50000  0.45165  1.0000
  O   O43       1.0  0.25000  0.25000  0.40406  1.0000
  O   O44       1.0  0.75000  0.75000  0.40406  1.0000
  O   O45       1.0  0.00000  0.00000  0.42550  1.0000
  O   O46       1.0  0.50000  0.50000  0.42550  1.0000
  O   O47       1.0  0.25000  0.25000  0.45502  1.0000
  O   O48       1.0  0.75000  0.75000  0.45502  1.0000
  O   O49       1.0  0.25000  0.75000  0.45515  1.0000
  O   O50       1.0  0.75000  0.25000  0.45515  1.0000
  O   O51       1.0  0.25000  0.25000  0.48765  1.0000
  O   O52       1.0  0.75000  0.75000  0.48765  1.0000
  O   O53       1.0  0.25000  0.75000  0.48779  1.0000
  O   O54       1.0  0.75000  0.25000  0.48779  1.0000
  O   O55       1.0  0.00000  0.00000  0.51731  1.0000
  O   O56       1.0  0.50000  0.50000  0.51731  1.0000
