data_image0
_chemical_formula_structural       Y2Ba4Cu6O14Y2Ba4Cu6O14Y2Ba4Cu6O14
_chemical_formula_sum              "Y6 Ba12 Cu18 O42"
_cell_length_a       5.45202
_cell_length_b       5.45202
_cell_length_c       75.04
_cell_angle_alpha    90
_cell_angle_beta     90
_cell_angle_gamma    90

_space_group_name_H-M_alt    "P 1"
_space_group_IT_number       1

loop_
  _space_group_symop_operation_xyz
  'x, y, z'

loop_
  _atom_site_type_symbol
  _atom_site_label
  _atom_site_symmetry_multiplicity
  _atom_site_fract_x
  _atom_site_fract_y
  _atom_site_fract_z
  _atom_site_occupancy
  Y   Y1        1.0  0.50000  0.00000  0.07783  1.0000
  Y   Y2        1.0  0.00000  0.50000  0.07783  1.0000
  Ba  Ba1       1.0  0.50000  0.00000  0.12754  1.0000
  Ba  Ba2       1.0  0.00000  0.50000  0.12754  1.0000
  Ba  Ba3       1.0  0.50000  0.00000  0.02811  1.0000
  Ba  Ba4       1.0  0.00000  0.50000  0.02811  1.0000
  Cu  Cu1       1.0  0.00000  0.00000  0.00000  1.0000
  Cu  Cu2       1.0  0.50000  0.50000  0.00000  1.0000
  Cu  Cu3       1.0  0.00000  0.00000  0.10066  1.0000
  Cu  Cu4       1.0  0.50000  0.50000  0.10066  1.0000
  Cu  Cu5       1.0  0.00000  0.00000  0.05499  1.0000
  Cu  Cu6       1.0  0.50000  0.50000  0.05499  1.0000
  O   O1        1.0  0.25000  0.25000  0.00000  1.0000
  O   O2        1.0  0.75000  0.75000  0.00000  1.0000
  O   O3        1.0  0.00000  0.00000  0.02478  1.0000
  O   O4        1.0  0.50000  0.50000  0.02478  1.0000
  O   O5        1.0  0.25000  0.25000  0.05889  1.0000
  O   O6        1.0  0.75000  0.75000  0.05889  1.0000
  O   O7        1.0  0.25000  0.75000  0.05905  1.0000
  O   O8        1.0  0.75000  0.25000  0.05905  1.0000
  O   O9        1.0  0.25000  0.25000  0.09660  1.0000
  O   O10       1.0  0.75000  0.75000  0.09660  1.0000
  O   O11       1.0  0.25000  0.75000  0.09676  1.0000
  O   O12       1.0  0.75000  0.25000  0.09676  1.0000
  O   O13       1.0  0.00000  0.00000  0.13087  1.0000
  O   O14       1.0  0.50000  0.50000  0.13087  1.0000
  Y   Y3        1.0  0.50000  0.00000  0.23348  1.0000
  Y   Y4        1.0  0.00000  0.50000  0.23348  1.0000
  Ba  Ba5       1.0  0.50000  0.00000  0.28319  1.0000
  Ba  Ba6       1.0  0.00000  0.50000  0.28319  1.0000
  Ba  Ba7       1.0  0.50000  0.00000  0.18376  1.0000
  Ba  Ba8       1.0  0.00000  0.50000  0.18376  1.0000
  Cu  Cu7       1.0  0.00000  0.00000  0.15565  1.0000
  Cu  Cu8       1.0  0.50000  0.50000  0.15565  1.0000
  Cu  Cu9       1.0  0.00000  0.00000  0.25631  1.0000
  Cu  Cu10      1.0  0.50000  0.50000  0.25631  1.0000
  Cu  Cu11      1.0  0.00000  0.00000  0.21064  1.0000
  Cu  Cu12      1.0  0.50000  0.50000  0.21064  1.0000
  O   O15       1.0  0.25000  0.25000  0.15565  1.0000
  O   O16       1.0  0.75000  0.75000  0.15565  1.0000
  O   O17       1.0  0.00000  0.00000  0.18043  1.0000
  O   O18       1.0  0.50000  0.50000  0.18043  1.0000
  O   O19       1.0  0.25000  0.25000  0.21454  1.0000
  O   O20       1.0  0.75000  0.75000  0.21454  1.0000
  O   O21       1.0  0.25000  0.75000  0.21470  1.0000
  O   O22       1.0  0.75000  0.25000  0.21470  1.0000
  O   O23       1.0  0.25000  0.25000  0.25225  1.0000
  O   O24       1.0  0.75000  0.75000  0.25225  1.0000
  O   O25       1.0  0.25000  0.75000  0.25241  1.0000
  O   O26       1.0  0.75000  0.25000  0.25241  1.0000
  O   O27       1.0  0.00000  0.00000  0.28652  1.0000
  O   O28       1.0  0.50000  0.50000  0.28652  1.0000
  Y   Y5        1.0  0.50000  0.00000  0.38913  1.0000
  Y   Y6        1.0  0.00000  0.50000  0.38913  1.0000
  Ba  Ba9       1.0  0.50000  0.00000  0.43884  1.0000
  Ba  Ba10      1.0  0.00000  0.50000  0.43884  1.0000
  Ba  Ba11      1.0  0.50000  0.00000  0.33941  1.0000
  Ba  Ba12      1.0  0.00000  0.50000  0.33941  1.0000
  Cu  Cu13      1.0  0.00000  0.00000  0.31130  1.0000
  Cu  Cu14      1.0  0.50000  0.50000  0.31130  1.0000
  Cu  Cu15      1.0  0.00000  0.00000  0.41196  1.0000
  Cu  Cu16      1.0  0.50000  0.50000  0.41196  1.0000
  Cu  Cu17      1.0  0.00000  0.00000  0.36630  1.0000
  Cu  Cu18      1.0  0.50000  0.50000  0.36630  1.0000
  O   O29       1.0  0.25000  0.25000  0.31130  1.0000
  O   O30       1.0  0.75000  0.75000  0.31130  1.0000
  O   O31       1.0  0.00000  0.00000  0.33608  1.0000
  O   O32       1.0  0.50000  0.50000  0.33608  1.0000
  O   O33       1.0  0.25000  0.25000  0.37019  1.0000
  O   O34       1.0  0.75000  0.75000  0.37019  1.0000
  O   O35       1.0  0.25000  0.75000  0.37035  1.0000
  O   O36       1.0  0.75000  0.25000  0.37035  1.0000
  O   O37       1.0  0.25000  0.25000  0.40791  1.0000
  O   O38       1.0  0.75000  0.75000  0.40791  1.0000
  O   O39       1.0  0.25000  0.75000  0.40806  1.0000
  O   O40       1.0  0.75000  0.25000  0.40806  1.0000
  O   O41       1.0  0.00000  0.00000  0.44217  1.0000
  O   O42       1.0  0.50000  0.50000  0.44217  1.0000
