data_image0
_chemical_formula_structural       Y2Ba4Cu6O14
_chemical_formula_sum              "Y2 Ba4 Cu6 O14"
_cell_length_a       5.45202
_cell_length_b       5.45202
_cell_length_c       51.68
_cell_angle_alpha    90
_cell_angle_beta     90
_cell_angle_gamma    90

_space_group_name_H-M_alt    "P 1"
_space_group_IT_number       1

loop_
  _space_group_symop_operation_xyz
  'x, y, z'

loop_
  _atom_site_type_symbol
  _atom_site_label
  _atom_site_symmetry_multiplicity
  _atom_site_fract_x
  _atom_site_fract_y
  _atom_site_fract_z
  _atom_site_occupancy
  Y   Y1        1.0  0.50000  0.00000  0.11300  1.0000
  Y   Y2        1.0  0.00000  0.50000  0.11300  1.0000
  Ba  Ba1       1.0  0.50000  0.00000  0.18519  1.0000
  Ba  Ba2       1.0  0.00000  0.50000  0.18519  1.0000
  Ba  Ba3       1.0  0.50000  0.00000  0.04082  1.0000
  Ba  Ba4       1.0  0.00000  0.50000  0.04082  1.0000
  Cu  Cu1       1.0  0.00000  0.00000  0.00000  1.0000
  Cu  Cu2       1.0  0.50000  0.50000  0.00000  1.0000
  Cu  Cu3       1.0  0.00000  0.00000  0.14615  1.0000
  Cu  Cu4       1.0  0.50000  0.50000  0.14615  1.0000
  Cu  Cu5       1.0  0.00000  0.00000  0.07985  1.0000
  Cu  Cu6       1.0  0.50000  0.50000  0.07985  1.0000
  O   O1        1.0  0.25000  0.25000  0.00000  1.0000
  O   O2        1.0  0.75000  0.75000  0.00000  1.0000
  O   O3        1.0  0.00000  0.00000  0.03598  1.0000
  O   O4        1.0  0.50000  0.50000  0.03598  1.0000
  O   O5        1.0  0.25000  0.25000  0.08551  1.0000
  O   O6        1.0  0.75000  0.75000  0.08551  1.0000
  O   O7        1.0  0.25000  0.75000  0.08574  1.0000
  O   O8        1.0  0.75000  0.25000  0.08574  1.0000
  O   O9        1.0  0.25000  0.25000  0.14027  1.0000
  O   O10       1.0  0.75000  0.75000  0.14027  1.0000
  O   O11       1.0  0.25000  0.75000  0.14050  1.0000
  O   O12       1.0  0.75000  0.25000  0.14050  1.0000
  O   O13       1.0  0.00000  0.00000  0.19003  1.0000
  O   O14       1.0  0.50000  0.50000  0.19003  1.0000
